Version 4
SHEET 1 880 680
WIRE 112 128 -96 128
WIRE 512 128 112 128
WIRE -96 160 -96 128
WIRE 112 160 112 128
WIRE 512 176 512 128
WIRE 112 256 112 240
WIRE 224 256 112 256
WIRE 368 256 288 256
WIRE 112 272 112 256
WIRE 368 272 368 256
WIRE 512 272 512 256
WIRE -272 320 -384 320
WIRE -96 320 -96 240
WIRE -96 320 -208 320
WIRE 48 320 -96 320
WIRE -384 368 -384 320
WIRE 368 368 368 352
WIRE -96 384 -96 320
WIRE 112 384 112 368
WIRE 272 384 112 384
WIRE 112 400 112 384
WIRE 272 400 272 384
WIRE -96 496 -96 464
WIRE 32 496 -96 496
WIRE 112 496 112 480
WIRE 112 496 32 496
WIRE 272 496 272 464
WIRE 272 496 112 496
WIRE 32 512 32 496
FLAG -384 448 0
FLAG 368 368 0
FLAG 32 512 0
FLAG 512 272 0
SYMBOL npn 48 272 R0
SYMATTR InstName Q1
SYMATTR Value BC547B
SYMBOL res -112 144 R0
SYMATTR InstName R1
SYMATTR Value 47k
SYMBOL res -112 368 R0
SYMATTR InstName R2
SYMATTR Value 10k
SYMBOL res 96 144 R0
SYMATTR InstName R3
SYMATTR Value 2.2k
SYMBOL res 96 384 R0
SYMATTR InstName R4
SYMATTR Value 560
SYMBOL res 352 256 R0
SYMATTR InstName R5
SYMATTR Value 1k
SYMBOL voltage -384 352 R0
WINDOW 123 0 0 Left 0
WINDOW 39 0 0 Left 0
SYMATTR InstName V1
SYMATTR Value SINE(0 10m 100)
SYMBOL voltage 512 160 R0
SYMATTR InstName V2
SYMATTR Value 15
SYMBOL cap 256 400 R0
SYMATTR InstName C1
SYMATTR Value 1000µ
SYMBOL cap -208 304 R90
WINDOW 0 0 32 VBottom 2
WINDOW 3 32 32 VTop 2
SYMATTR InstName C2
SYMATTR Value 10µ
SYMBOL cap 288 240 R90
WINDOW 0 0 32 VBottom 2
WINDOW 3 32 32 VTop 2
SYMATTR InstName C3
SYMATTR Value 10µ
TEXT -200 48 Left 2 ;Exp 6: CE Amplifier, AC Analysis    21BCE1297    06/04/22
TEXT -392 536 Left 2 !.tran 0 60m 0 100
