Version 4
SHEET 1 880 680
WIRE 416 -80 224 -80
WIRE 416 -16 416 -80
WIRE 224 0 224 -80
WIRE 16 48 -96 48
WIRE 160 48 96 48
WIRE 416 96 416 64
WIRE -96 112 -96 48
WIRE -96 224 -96 192
WIRE 224 224 224 96
WIRE 224 224 -96 224
WIRE 416 224 416 176
WIRE 416 224 224 224
WIRE 224 240 224 224
FLAG 224 240 0
SYMBOL npn 160 0 R0
SYMATTR InstName Q1
SYMATTR Value 2N2222
SYMBOL voltage -96 96 R0
SYMATTR InstName Vbe
SYMBOL voltage 416 80 R0
SYMATTR InstName Vce
SYMBOL res 400 -32 R0
SYMATTR InstName R1
SYMATTR Value 100
SYMBOL res 112 32 R90
WINDOW 0 0 56 VBottom 2
WINDOW 3 32 56 VTop 2
SYMATTR InstName R2
SYMATTR Value 1k
TEXT -88 256 Left 2 !.dc Vbe 0 1 .1 Vce 0 10 1
TEXT -240 -152 Left 2 ;Exp 4 - Input Output Characteristics of CE BJT    21BCE1297    16/03/22
