Version 4
SHEET 1 968 680
WIRE 368 144 128 144
WIRE 592 144 432 144
WIRE 128 192 128 144
WIRE 592 192 592 144
WIRE 128 320 128 272
WIRE 224 320 128 320
WIRE 592 320 592 272
WIRE 592 320 224 320
WIRE 224 336 224 320
FLAG 224 336 0
SYMBOL voltage 128 176 R0
WINDOW 123 0 0 Left 0
WINDOW 39 0 0 Left 0
SYMATTR InstName V1
SYMATTR Value SINE(0 10 50)
SYMBOL diode 368 160 R270
WINDOW 0 32 32 VTop 2
WINDOW 3 0 32 VBottom 2
SYMATTR InstName D1
SYMATTR Value 1N4148
SYMBOL res 576 176 R0
SYMATTR InstName R1
SYMATTR Value 1k
TEXT -8 40 Left 2 ;EXP2     I-V char. for PN diode and zener diode      02/03/22     21BCE1297
TEXT 136 384 Left 2 !.tran 0 60m 0 10
