Version 4
SHEET 1 880 680
WIRE 304 32 96 32
WIRE 432 80 384 80
WIRE 304 96 256 96
WIRE 96 208 96 32
WIRE 256 208 256 96
FLAG 96 288 0
FLAG 256 288 0
SYMBOL voltage 96 192 R0
SYMATTR InstName X
SYMATTR Value 1
SYMBOL voltage 256 192 R0
SYMATTR InstName Y
SYMATTR Value 1
SYMBOL Digital\\xor 352 0 R0
SYMATTR InstName XNOR
TEXT 88 336 Left 2 !.tran 40ms
TEXT -24 -56 Left 2 ;Exp 8 - Logic Gates    21BCE1297    18/05/22
